[TITLE]
; Exemplo INP para QuickDemo
; Rede simples de teste

[JUNCTIONS]
;ID      Elevation Demand
J1       100      10
J2       100      10
J3       100      20

[RESERVOIRS]
;ID    Head
R1     120

[PIPES]
;ID   Node1  Node2  Length  Diam  Roughness  MinorLoss  Status
P1    R1     J1     1000    300   100        0          Open
P2    J1     J2     1000    300   100        0          Open
P3    J2     J3     1000    300   100        0          Open

[END]
